<?xml version="1.0" encoding="UTF-8"?>

<!-- generated on 2025-12-06 20:11:03 by Eclipse SUMO netedit Version 1.23.1
-->

<routes xmlns:xsi="http://www.w3.org/2001/XMLSchema-instance" xsi:noNamespaceSchemaLocation="http://sumo.dlr.de/xsd/routes_file.xsd">
    <!-- Vehicles, persons and containers (sorted by depart) -->
    <!-- <trip id="t_0" depart="0.00" from="A0A1" to="B2C2"/> -->


    <vType id="car_1" accel="2.6" decel="4.5" length="5" maxSpeed="2"  sigma="0.5" color="1,0,0"/>
    <vType id="car_2" accel="2.6" decel="4.5" length="5" maxSpeed="3"  sigma="0.5" color="0,1,0"/>
    <route id="r0" edges="A0A1 A1B1 B1B0 B0C0 C0C1 C1C2 C2B2 B2A2"/>
    <route id="r1" edges="A2A1 A1B1 B1B0 B0C0 C0C1 C1C2 C2B2 B2A2"/>

    <vehicle id="veh0" type="car_1" route="r0" depart="0" departSpeed="max" departLane="free"/>
    <vehicle id="veh1" type="car_2" route="r1" depart="1" departSpeed="max" departLane="free"/>
    <vehicle id="veh2" type="car_1" route="r0" depart="2" departSpeed="max" departLane="free"/>
    <vehicle id="veh3" type="car_2" route="r1" depart="3" departSpeed="max" departLane="free"/>
    <vehicle id="veh4" type="car_1" route="r0" depart="4" departSpeed="max" departLane="free"/>
    <vehicle id="veh5" type="car_2" route="r1" depart="5" departSpeed="max" departLane="free"/>
    <vehicle id="veh6" type="car_1" route="r0" depart="6" departSpeed="max" departLane="free"/>
    <vehicle id="veh7" type="car_2" route="r1" depart="7" departSpeed="max" departLane="free"/>
    <vehicle id="veh8" type="car_1" route="r0" depart="8" departSpeed="max" departLane="free"/>
    <vehicle id="veh9" type="car_2" route="r1" depart="9" departSpeed="max" departLane="free"/>

</routes>
