<?xml version="1.0" encoding="UTF-8"?>

<!-- generated on 2025-08-04 11:12:14 by Eclipse SUMO GUI Version 1.23.1
-->

<sumoConfiguration xmlns:xsi="http://www.w3.org/2001/XMLSchema-instance" xsi:noNamespaceSchemaLocation="http://sumo.dlr.de/xsd/sumoConfiguration.xsd">

    <input>
        <net-file value="net.net.xml"/>
        <route-files value="routes.rou.xml"/>
    </input>

    <time>
        <begin value="0"/>
        <end value="100"/>
    </time>

</sumoConfiguration>
